data/projects/lehighauto_3mg/circuit_plusmg_1.dss
clear
set defaultbasefrequency=60
new object=circuit.lehigh basekv=115 pu=1.0001 phases=3 bus1=sourcebus angle=30 mvasc3=20000 mvasc1=21000
edit object=vsource.source basekv=115 bus1=sourcebus.1.2.3 pu=1.00 r1=0 x1=0.0001 r0=0 x0=0.0001
new object=vsource.secondsource basekv=4.16 bus1=680.1.2.3 pu=1.00 r1=0 x1=0.0001 r0=0 x0=0.0001
new object=transformer.sub phases=3 windings=2 xhl=0.008 buses=[sourcebus.1.2.3,650.1.2.3] conns=[delta,wye] kvs=[115,4.16] kvas=[5000,5000] %rs=[0.0005,0.0005]
new object=transformer.reg1 phases=1 bank=reg1 xhl=0.01 kvas=[1666,1666] buses=[650.1,rg60.1] kvs=[2.4,2.4] %loadloss=0.01
new object=regcontrol.reg1 transformer=reg1 winding=2 vreg=121 band=2 ptratio=20 ctprim=700 r=3 x=9
new object=transformer.reg2 phases=1 bank=reg1 xhl=0.01 kvas=[1666,1666] buses=[650.2,rg60.2] kvs=[2.4,2.4] %loadloss=0.01
new object=regcontrol.reg2 transformer=reg2 winding=2 vreg=121 band=2 ptratio=20 ctprim=700 r=3 x=9
new object=transformer.reg3 phases=1 bank=reg1 xhl=0.01 kvas=[1666,1666] buses=[650.3,rg60.3] kvs=[2.4,2.4] %loadloss=0.01
new object=regcontrol.reg3 transformer=reg3 winding=2 vreg=121 band=2 ptratio=20 ctprim=700 r=3 x=9
new object=transformer.xfm1 phases=3 windings=2 xhl=2 buses=[633.1.2.3,634.1.2.3] conns=[wye,wye] kvs=[4.16,0.480] kvas=[500,500] %rs=[0.55,0.55] xht=1 xlt=1
new object=linecode.mtx601 nphases=3 basefreq=60 rmatrix=[0.3465|0.1560,0.3375|0.1580,0.1535,0.3414] xmatrix=[1.0179|0.5017,1.0478|0.4236,0.3849,1.0348] units=mi
new object=linecode.mtx602 nphases=3 basefreq=60 rmatrix=[0.7526|0.1580,0.7475|0.1560,0.1535,0.7436] xmatrix=[1.1814|0.4236,1.1983|0.5017,0.3849,1.2112] units=mi
new object=linecode.mtx603 nphases=2 basefreq=60 rmatrix=[1.3238|0.2066,1.3294] xmatrix=[1.3569|0.4591,1.3471] units=mi
new object=linecode.mtx604 nphases=2 basefreq=60 rmatrix=[1.3238|0.2066,1.3294] xmatrix=[1.3569|0.4591,1.3471] units=mi
new object=linecode.mtx605 nphases=1 basefreq=60 rmatrix=[1.3292] xmatrix=[1.3475] units=mi
new object=linecode.mtx606 nphases=3 units=mi rmatrix=[0.791721|0.318476,0.781649|0.28345,0.318476,0.791721] xmatrix=[0.438352|0.0276838,0.396697|-0.0184204,0.0276838,0.438352] cmatrix=[383.948|0,383.948|0,0,383.948]
new object=linecode.mtx607 nphases=1 basefreq=60 rmatrix=[1.3425] xmatrix=[0.5124] cmatrix=[236] units=mi
new object=loadshape.solar_633_shape npts=8760 interval=1 useactual=yes mult=[0.0,0.0,0.0,0.0,0.0,0.0,0.0,0.0,3.0719055478044135,9.31434215470088,13.148455427475422,40.40333634300884,9.265215484927412,21.65183535917342,32.391595280786206,34.87360861956833,17.42470872821115,1.1552210831578509,0.0,0.0,0.0,0.0,0.0,0.0,0.0,0.0,0.0,0.0,0.0,0.0,0.0,0.0,8.060867731996098,20.47205094112883,28.6561075192993,1.130657748271118,61.514406162933426,21.995722047587673,79.87326596032183,54.928082867622706,28.99999420771356,2.48238551052283,0.0,0.0,0.0,0.0,0.0,0.0,0.0,0.0,0.0,0.0,0.0,0.0,0.0,0.0,23.642582000220887,55.12458954671657,73.23744382349695,31.039867518534496,55.19827955137676,55.05089954205637,44.974721834126065,39.051608580757126,20.496614276015567,1.6219244460057711,0.0,0.0,0.0,0.0,0.0,0.0,0.0,0.0,0.0,0.0,0.0,0.0,0.0,0.0,35.97970303295271,82.42896930376415,117.03238123957844,130.6538669494938,128.52578893612505,129.3575927766076,102.9471695407408,80.47171811938041,52.54432286838751,10.322183228538334,0.0,0.0,0.0,0.0,0.0,0.0,0.0,0.0,0.0,0.0,0.0,0.0,0.0,0.0,39.12567075715803,87.29511481352219,122.83230564677298,140.97232846062505,139.49406230653258,140.76019056842145,128.41116003998698,93.84161573257714,53.035589566122155,10.0761777079303,0.0,0.0,0.0,0.0,0.0,0.0,0.0,0.0,0.0,0.0,0.0,0.0,0.0,0.0,30.91705084410083,73.21288048861021,114.7710657430362,102.85189357511952,116.2701735146083,119.93234344317572,120.39941897776434,91.35029810027731,49.447481813955655,9.240652150040685,0.0,0.0,0.0,0.0,0.0,0.0,0.0,0.0,0.0,0.0,0.0,0.0,0.0,0.0,31.38412637868946,31.16268419296816,111.35527350681753,127.72301449141774,114.37842455658917,109.51190687509045,92.30864033260058,47.18653848915414,24.920247586071692,2.6543288547299584,0.0,0.0,0.0,0.0,0.0,0.0,0.0,0.0,0.0,0.0,0.0,0.0,0.0,0.0,31.94908308108431,74.49091824620172,19.661088718125946,25.90352532502241,57.97542508054038,67.1669505608076,55.026336207169635,35.66037967942519,18.92381649978326,2.18725332014133,0.0,0.0,0.0,0.0,0.0,0.0,0.0,0.0,0.0,0.0,0.0,0.0,0.0,0.0,32.8341074804881,75.3755704738648,40.40333634300884,85.94338705127046,67.3147027418687,31.433253048462923,40.3050830034619,33.71875970815118,17.47383539798462,8.257746582830666,0.0,0.0,0.0,0.0,0.0,0.0,0.0,0.0,0.0,0.0,0.0,0.0,0.0,0.0,15.212892073183088,37.60162747895848,60.58062726549688,103.83517131407024,60.26130391196936,78.69348154227724,79.9220204583546,64.48805837119092,35.97970303295271,6.316126611556664,0.0,0.0,0.0,0.0,0.0,0.0,0.0,0.0,0.0,0.0,0.0,0.0,0.0,0.0,39.616937454892685,87.68812817170989,122.73405230722608,136.23681523185556,135.09536450310392,137.47614712841343,118.25645409476726,92.49435403121392,59.94160838670112,14.770379873481192,0.0,0.0,0.0,0.0,0.0,0.0,0.0,0.0,0.0,0.0,0.0,0.0,0.0,0.0,36.59415857686174,83.11711485233339,116.63899570965,128.0021432969488,123.29603163569524,123.11106228056332,96.84243647790632,73.52922646821207,58.54075395467594,14.5493098595006,0.0,0.0,0.0,0.0,0.0,0.0,0.0,0.0,0.0,0.0,0.0,0.0,0.0,0.0,35.80775968874558,82.18333595489682,115.7297801471002,106.75969685255426,118.5069256762638,107.767165754651,97.24847584701882,77.58738712889287,46.03131740599628,11.13314545154122,0.0,0.0,0.0,0.0,0.0,0.0,0.0,0.0,0.0,0.0,0.0,0.0,0.0,0.0,14.917759882801588,35.34068415415695,64.04591834322972,81.642570415648,93.53717924867792,85.84513371172353,50.77464624132064,41.33748741218609,23.322886474952657,3.809177766147101,0.0,0.0,0.0,0.0,0.0,0.0,0.0,0.0,0.0,0.0,0.0,0.0,0.0,0.0,7.864361052902237,21.111069819924587,98.0594380700217,118.9408779259294,127.04119586244056,128.435351203133,119.42209598666496,77.94616068693544,56.9433928435569,14.401557678439492,0.0,0.0,0.0,0.0,0.0,0.0,0.0,0.0,0.0,0.0,0.0,0.0,0.0,0.0,32.563538624993335,75.6707026642463,106.7347613459268,90.26913919352036,106.09574246713106,129.39741515286337,83.48556487563435,38.14239301820731,21.356703168791913,3.8583044359205663,0.0,0.0,0.0,0.0,0.0,0.0,0.0,0.0,0.0,0.0,0.0,0.0,0.0,0.0,33.66963303837772,80.9789882019655,118.21179348588232,139.9596491541584,138.9640897477643,141.30839954248444,129.39406560719698,92.00048213129432,59.6222850331736,15.532215426710613,0.0,0.0,0.0,0.0,0.0,0.0,0.0,0.0,0.0,0.0,0.0,0.0,0.0,0.0,36.766101921068866,82.82235483369259,119.83409010362875,140.02515138052303,138.23984354034638,139.46019467812818,130.48080709006453,91.2810741565056,60.67888060504381,16.023854296185974,0.0,0.0,0.0,0.0,0.0,0.0,0.0,0.0,0.0,0.0,0.0,0.0,0.0,0.0,38.78141189700307,86.95085595336721,121.94765341910993,141.89084831669254,141.65191405915797,142.5752721478547,132.01117728785613,90.79911175228868,63.75078615284823,17.47383539798462,0.0,0.0,0.0,0.0,0.0,0.0,0.0,0.0,0.0,0.0,0.0,0.0,0.0,0.0,38.068703013547115,84.91098264254629,118.72836786198508,139.0281032871661,141.79892189673768,142.22319768114485,126.7892355939812,99.97649470640896,60.58062726549688,16.29405097994003,0.0,0.0,0.0,0.0,0.0,0.0,0.0,0.0,0.0,0.0,0.0,0.0,0.0,0.0,9.80598102417624,24.551797562770695,37.184050785884025,21.233886494358252,61.56353283270689,16.416867654373696,17.129576537829653,0.2456333488673265,0.0,0.0,0.0,0.0,0.0,0.0,0.0,0.0,0.0,0.0,0.0,0.0,0.0,0.0,0.0,0.0,9.04414547094682,26.5671075387049,75.08081045522401,80.19258931384937,127.4025746226681,128.33449266140113,69.9932227597447,60.72800727481727,35.31612081927022,7.839797718015505,0.0,0.0,0.0,0.0,0.0,0.0,0.0,0.0,0.0,0.0,0.0,0.0,0.0,0.0,10.223929888991403,26.517980868931435,30.8187975045539,76.70273490122979,143.68285524820192,144.8905525467996,142.00175549542357,112.0925457251602,67.63402609539624,19.169449848650583,0.0,0.0,0.0,0.0,0.0,0.0,0.0,0.0,0.0,0.0,0.0,0.0,0.0,0.0,40.55108852406994,89.28586145456964,124.42966675789202,143.0535128346646,141.87075104269434,144.45436726668976,132.327523267458,91.32387390668704,66.945880546827,19.61196204835248,0.0,0.0,0.0,0.0,0.0,0.0,0.0,0.0,0.0,0.0,0.0,0.0,0.0,0.0,38.634031887682674,85.32893150736143,118.70343235535763,139.126356626713,142.24478364210594,143.45731917333285,128.82910890480213,102.80239473360535,64.26698835721032,18.94837983466999,0.0,0.0,0.0,0.0,0.0,0.0,0.0,0.0,0.0,0.0,0.0,0.0,0.0,0.0,25.632956469527645,58.76182396865654,67.73227943494315,100.54182358054452,112.55962125974882,107.86579126593864,98.20681807934209,72.22960274965948,44.23744961578338,12.632253223113327,0.0,0.0,0.0,0.0,0.0,0.0,0.0,0.0,0.0,0.0,0.0,0.0,0.0,0.0,30.474538644398933,71.19757051267601,68.98575385764794,128.1409633562329,135.19399001439157,98.08400140490843,13.61515879032334,95.35635471725898,56.32893729964788,15.851538780238135,0.0,0.0,0.0,0.0,0.0,0.0,0.0,0.0,0.0,0.0,0.0,0.0,0.0,0.0,8.626196606131657,13.885727645818111,20.939126475717455,32.36703194589947,25.55926646486745,17.744032081738673,17.99003760234671,6.979708825239154,3.5881077521665072,0.0736900046601979,0.0,0.0,0.0,0.0,0.0,0.0,0.0,0.0,0.0,0.0,0.0,0.0,0.0,0.0,40.60021519384341,88.2006086586649,101.10938548512432,109.26031877837178,115.75508782546832,93.36337504576726,67.68538579561395,66.93471539460576,67.11782389103413,21.258449829244984,0.0,0.0,0.0,0.0,0.0,0.0,0.0,0.0,0.0,0.0,0.0,0.0,0.0,0.0,38.560341883022474,85.25524150270124,119.29332456437996,134.42247799590373,131.9371151114552,132.3137529130518,109.80852775243478,83.74682943761142,55.86186176505926,21.111069819924587,0.0,0.0,0.0,0.0,0.0,0.0,0.0,0.0,0.0,0.0,0.0,0.0,0.0,0.0,12.042361014091036,36.938045265276,62.890697260071875,63.65253281330129,81.88857593625605,77.34175378002554,69.82127941553755,50.23388070207181,30.8187975045539,8.84763879185296,0.0,0.0,0.0,0.0,0.0,0.0,0.0,0.0,0.0,0.0,0.0,0.0,0.0,0.0,40.575651858956675,89.18760811502271,126.39585006405278,136.92272774998054,134.5415729529303,135.0771280878092,110.10812600370475,84.45097837103108,69.64933607133042,23.249196470292453,0.0,0.0,0.0,0.0,0.0,0.0,0.0,0.0,0.0,0.0,0.0,0.0,0.0,0.0,40.72303186827707,86.82803927893355,120.4485456475378,139.07574126997673,136.6949586446672,137.349236564832,123.9495652123786,86.92368741629552,69.6247727364437,23.69170866999435,0.0,0.0,0.0,0.0,0.0,0.0,0.0,0.0,0.0,0.0,0.0,0.0,0.0,0.0,40.42789967789557,35.0704874704029,82.25702595955703,102.21287469632378,116.6393678813907,114.25523571041478,98.4282602650634,28.189031984710677,20.373797601581902,13.443215446116216,0.0,0.0,0.0,0.0,0.0,0.0,0.0,0.0,0.0,0.0,0.0,0.0,0.0,0.0,0.0,31.23637419762835,84.22283709397705,118.11391231807606,133.31936095644502,134.406846782794,133.46413576358043,114.57493123568304,72.30366492606039,25.436449790433784,0.0,0.0,0.0,0.0,0.0,0.0,0.0,0.0,0.0,0.0,0.0,0.0,0.0,0.0,29.19650088680742,77.85758381264694,108.32393467875028,114.850338323807,121.4906265215204,116.81801031693058,70.9805943878432,69.54289495348792,43.54930406721416,21.184759824584784,0.0,0.0,0.0,0.0,0.0,0.0,0.0,0.0,0.0,0.0,0.0,0.0,0.0,0.0,21.479519843225575,28.508355338238193,21.479519843225575,32.36703194589947,21.430393173452114,89.4823681336635,81.49519040632761,59.155209498584966,20.54574094578903,2.826272198937087,0.0,0.0,0.0,0.0,0.0,0.0,0.0,0.0,0.0,0.0,0.0,0.0,0.0,0.0,1.5973611111190384,10.322183228538334,16.146670970619635,57.77891840144652,69.5510827317835,32.391595280786206,46.91634180540007,20.4474876062421,12.411183209132734,23.37201314472612,0.0,0.0,0.0,0.0,0.0,0.0,0.0,0.0,0.0,0.0,0.0,0.0,0.0,0.0,10.174431047477231,9.683164349742578,37.55250080918502,73.55676717702445,67.4620827511891,84.39515260992489,92.23457815619967,111.23245683238386,71.91027939613195,25.80527198547548,0.0,0.0,0.0,0.0,0.0,0.0,0.0,0.0,0.0,0.0,0.0,0.0,0.0,0.0,8.159493243283737,20.71768428999616,38.75684856211633,130.9754233334656,54.16624731439328,53.87111512401178,61.14595613963243,46.00675407110955,1.130657748271118,23.986468688635146,0.0,0.0,0.0,0.0,0.0,0.0,0.0,0.0,0.0,0.0,0.0,0.0,0.0,0.0,13.05020208792849,57.99998841542712,121.04885866529992,128.98542103589952,125.30761989422236,124.73038152438414,100.5823903002817,74.34465475210345,75.27731713431787,28.38553866380453,0.0,0.0,0.0,0.0,0.0,0.0,0.0,0.0,0.0,0.0,0.0,0.0,0.0,4.153436626302066,47.85012070283662,95.5037347265794,121.12924776129286,128.86967562453933,124.40584776648672,116.2191859861313,75.34505239112674,74.32083576069813,77.18916336633522,29.835519765603173,0.0,0.0,0.0,0.0,0.0,0.0,0.0,0.0,0.0,0.0,0.0,0.0,0.0,4.227126630962265,46.12957074554321,86.12649554769884,99.27495097517426,108.1397096670998,115.42757669364524,90.36925339177084,67.28157945694569,66.47582763831272,69.27976953280732,28.92630420305336,0.0,0.0,0.0,0.0,0.0,0.0,0.0,0.0,0.0,0.0,0.0,0.0,0.0,5.33322104434665,48.48913958163238,95.52829806146612,127.37205653993004,136.02653819835552,133.58323072060702,132.0975211317004,93.59449369674698,82.75499174862442,75.81808267356669,16.367740984600232,0.0,0.0,0.0,0.0,0.0,0.0,0.0,0.0,0.0,0.0,0.0,0.0,0.0,0.0982533395469306,26.93555756200589,61.66178617225383,87.14736263246107,99.21465915317955,117.10607124423862,123.93840006015738,82.42896930376415,72.50017160515425,51.38910178522966,17.42470872821115,0.0,0.0,0.0,0.0,0.0,0.0,0.0,0.0,0.0,0.0,0.0,0.0,0.0,1.1797844180445831,43.40192405789376,87.0245459580274,121.94765341910993,140.05864683718673,137.6685599183595,138.8219201428138,127.86034586373904,88.63642176703407,70.63224163854044,27.304379757047588,0.0,0.0,0.0,0.0,0.0,0.0,0.0,0.0,0.0,0.0,0.0,0.0,0.0,0.0,6.46350662087706,9.166962145380484,29.073684212373756,40.6739051985036,43.37736072300703,52.519759533500775,33.44819085265642,29.02455754260029,30.892487509214096,11.477032139955478,0.0,0.0,0.0,0.0,0.0,0.0,0.0,0.0,0.0,0.0,0.0,0.0,0.0,0.0,0.7127088834559548,31.703449732216985,56.40262730430808,73.01637380951635,110.42149460938096,126.1747800500722,98.7230202837042,122.11996893505774,46.08044407576975,15.777848775577938,0.0,0.0,0.0,0.0,0.0,0.0,0.0,0.0,0.0,0.0,0.0,0.0,0.0,5.185468863285546,16.09754430084617,34.7016652753612,61.17051947451917,84.66534929367896,141.79333932062704,144.41342837521188,142.421937390683,118.38410900183013,79.87289378858112,32.219651936579076,0.0,0.0,0.0,0.0,0.0,0.0,0.0,0.0,0.0,0.0,0.0,0.0,0.0,6.635449965084189,49.22641179997507,95.20860253619789,114.59614502490338,120.33056720573332,128.56337828193656,112.91653395908789,81.3061271620479,80.27409492506442,77.34175378002554,31.35919087206202,0.0,0.0,0.0,0.0,0.0,0.0,0.0,0.0,0.0,0.0,0.0,0.0,0.0,6.0459299278026055,18.7273098206894,78.34922268212229,94.69240033183576,119.50546245658354,127.9876285990612,129.81127012853074,100.08144713728863,79.15013626812605,76.77642490588998,29.81095643071644,0.0,0.0,0.0,0.0,0.0,0.0,0.0,0.0,0.0,0.0,0.0,0.0,0.0,2.678892189616691,9.953361033496636,48.98040627936703,46.08044407576975,63.62796947841456,87.34424148329565,71.22213384756274,90.85865923080196,44.77821515503221,13.959417650478308,0.0245633348867326,0.0,0.0,0.0,0.0,0.0,0.0,0.0,0.0,0.0,0.0,0.0,0.0,0.0,0.0,1.2780377575915138,0.6390188787957569,7.692417708695109,49.88999401365755,34.627975270701,79.89745712346786,86.68065926961316,57.385532871518095,6.291563276669932,29.49163307718892,0.0,0.0,0.0,0.0,0.0,0.0,0.0,0.0,0.0,0.0,0.0,0.0,0.0,8.87220212673969,55.591665081305194,105.23602574609542,140.9697232584401,148.0629444645952,146.8545028225161,147.55083614938093,110.5614311838872,95.2182790014563,83.70700706135567,35.389810823930425,0.0,0.0,0.0,0.0,0.0,0.0,0.0,0.0,0.0,0.0,0.0,0.0,0.0,9.388032159361078,54.51013400280754,100.2221280552763,132.85935668492982,146.37328476178058,145.80832805938573,146.05433357999374,119.572453369911,94.82824301719424,81.07724154151244,34.136336401225634,0.0,0.0,0.0,0.0,0.0,0.0,0.0,0.0,0.0,0.0,0.0,0.0,0.0,6.242436606896466,49.34922847440873,77.41544378468572,106.93126802502069,129.7137611324652,129.78745113712543,129.83694997863958,77.8330204777602,54.53469733769427,74.76111492995577,32.7600453040872,0.0,0.0,0.0,0.0,0.0,0.0,0.0,0.0,0.0,0.0,0.0,0.0,0.0,3.563544417279774,30.35172196996527,68.1993549695318,81.42150040166742,99.21428698143885,96.83052698220366,113.96494175266253,88.81878591998101,44.85190515969241,14.033107655138506,13.910290980704842,0.0,0.0,0.0,0.0,0.0,0.0,0.0,0.0,0.0,0.0,0.0,0.0,0.0,7.61872770403491,37.35599413009116,50.332134041618744,83.38731153608744,115.80347015176038,114.20648121238204,105.08827356503431,90.9814759052356,87.9832603620914,51.069406259961426,11.845854334997176,0.0,0.0,0.0,0.0,0.0,0.0,0.0,0.0,0.0,0.0,0.0,0.0,0.0,4.0551832867551365,22.487360917063032,59.27802617301864,61.17051947451917,76.5553548919094,93.16872922537694,108.18474244772548,95.50336255483866,84.59165928901875,61.342462818726304,19.046633174216925,0.0,0.0,0.0,0.0,0.0,0.0,0.0,0.0,0.0,0.0,0.0,0.0,0.0,10.961202107334092,55.39515840221133,99.33747582761322,129.91845558985466,136.92979901305398,134.0704035291939,133.6930213841159,92.67076343630956,84.71596465041524,74.07296938138656,32.17052526680561,0.0,0.0,0.0,0.0,0.0,0.0,0.0,0.0,0.0,0.0,0.0,0.0,0.0,11.993234344317573,59.351716177678824,107.05445687119506,132.06774739244378,137.52043556555768,135.16012238598714,136.3823343824724,90.13627388208758,84.43236978399571,79.97114712812805,38.38802636707464,0.0,0.0,0.0,0.0,0.0,0.0,0.0,0.0,0.0,0.0,0.0,0.0,0.0,11.673910990790048,54.26450065394022,92.60340035124138,136.30938872129363,142.09256540015636,141.4550352083234,142.6988331657698,113.79597578238103,91.85161343501107,75.12993712499747,32.29334194123927,0.0,0.0,0.0,0.0,0.0,0.0,0.0,0.0,0.0,0.0,0.0,0.0,0.0,12.411183209132734,5.554291058327244,108.50443797299368,47.53042517756839,58.19686726626169,80.26627931850956,147.9062601617571,147.0108149536135,126.39622223579347,84.88641930765955,38.24064635775424,0.0,0.0,0.0,0.0,0.0,0.0,0.0,0.0,0.0,0.0,0.0,0.0,0.0,13.737975464757003,61.1213928047457,102.42017435589815,115.42943755234876,121.76231189223728,131.61965261663124,107.89817020738025,83.76915974205392,81.60870278724357,83.68542110039459,38.38802636707464,0.0,0.0,0.0,0.0,0.0,0.0,0.0,0.0,0.0,0.0,0.0,0.0,0.0,14.573873194387332,64.61124721736527,111.69916019523176,138.99907389139088,142.53135588245115,140.80931723819492,141.77435856185093,96.33293336487696,91.23678571936136,87.4670581577293,40.05944965459458,2.0398733108209344,0.0,0.0,0.0,0.0,0.0,0.0,0.0,0.0,0.0,0.0,0.0,0.0,14.74581653859446,63.03807726939227,109.53647020997715,135.0540534398853,139.74416171628843,138.38424617574114,139.70285065306985,92.94728703965563,88.98142497067043,81.96189376917553,36.91348193038926,1.4008544320251772,0.0,0.0,0.0,0.0,0.0,0.0,0.0,0.0,0.0,0.0,0.0,0.0,14.500183189727132,56.67282398806214,107.32465355494912,135.82891500403954,140.56145085888332,138.7087799336386,140.55400742406917,97.40106626070911,90.11059403197874,80.33996932316975,36.02882970272618,1.2534744227047814,0.0,0.0,0.0,0.0,0.0,0.0,0.0,0.0,0.0,0.0,0.0,0.0,15.212892073183088,62.25167838127611,106.75969685255426,138.59675623968542,143.39442214915317,142.89682853182651,145.20838721336432,105.65769632831766,95.81598681703346,84.19827375909033,38.38802636707464,2.2118166550280627,0.0,0.0,0.0,0.0,0.0,0.0,0.0,0.0,0.0,0.0,0.0,0.0,13.836600976044643,53.50266510071079,106.73513351766752,124.18403340902468,138.89039974310413,135.1091348575101,135.75224762545366,107.8497878810882,83.14502773288648,60.531500595723415,36.938045265276,1.8679299666138056,0.0,0.0,0.0,0.0,0.0,0.0,0.0,0.0,0.0,0.0,0.0,0.0,15.483088756937146,60.55569175886944,82.06051928046317,94.98753252221728,100.91027360384552,129.136522762627,129.9947507966998,98.60020360927052,116.6393678813907,79.13562157023844,36.520468572201544,1.6710511157792365,0.0,0.0,0.0,0.0,0.0,0.0,0.0,0.0,0.0,0.0,0.0,0.0,13.197582097248883,47.35848183336125,91.32536259364988,115.14174879678144,122.781318118296,123.40210058179704,116.73910990790048,73.28731483675183,73.44437131133063,66.48848147749679,37.03667077656363,2.0889999805943997,0.0,0.0,0.0,0.0,0.0,0.0,0.0,0.0,0.0,0.0,0.0,0.0,11.550722144615676,41.23923407263917,41.36205074707283,23.519393154046515,63.33320945977376,85.89426038149699,146.93563626199045,145.39372874023692,120.76786900106532,84.27233593549123,37.89675966933998,2.728018859390157,0.0,0.0,0.0,0.0,0.0,0.0,0.0,0.0,0.0,0.0,0.0,0.0,17.866848756172338,64.8568805662326,108.25880462412636,104.96545689060066,141.5555215783146,140.20900422043283,139.09062813960503,138.20969762934905,93.95661680045592,86.31183707457146,39.44499411068555,3.2196577288655175,0.0,0.0,0.0,0.0,0.0,0.0,0.0,0.0,0.0,0.0,0.0,0.0,18.65324764428849,64.70950055691222,106.09574246713106,125.8722044248765,121.52523849340623,121.52858803907262,110.1419936321092,72.67806969721272,73.0874586119916,75.88246838470918,39.34674077113862,3.1950943939787853,0.0,0.0,0.0,0.0,0.0,0.0,0.0,0.0,0.0,0.0,0.0,0.0,18.407614295421165,63.50515280398089,92.8494058718494,100.56638691543124,120.89887345379456,121.56617738488411,121.19809953332386,99.69848241610003,73.26572887579076,52.3965706873264,25.117126436906258,1.2534744227047814,0.0,0.0,0.0,0.0,0.0,0.0,0.0,0.0,0.0,0.0,0.0,0.0,2.5560755151830277,10.66606991695259,16.85937985407559,31.777139736877174,17.03132319828272,11.305088795748349,38.78141189700307,53.723735114691394,4.079746621641869,30.400848639738737,14.426121013326227,0.0245633348867326,0.0,0.0,0.0,0.0,0.0,0.0,0.0,0.0,0.0,0.0,0.0,0.0,10.174431047477231,31.654323062443513,50.65182956688698,47.45673517290819,71.02562716846887,57.77891840144652,54.3381906586004,59.32715284279209,57.1644628575375,17.645778742191744,8.159493243283737,0.0,0.0,0.0,0.0,0.0,0.0,0.0,0.0,0.0,0.0,0.0,0.0,0.0,3.0227788780309486,12.804196567320457,47.80099403306315,69.23138720651527,116.86043789537128,118.6271371485125,116.62224798131813,115.19757455788763,92.79506879770604,51.38910178522966,24.674614237204366,1.474544436685375,0.0,0.0,0.0,0.0,0.0,0.0,0.0,0.0,0.0,0.0,0.0,0.0,21.848342038267276,23.71627200488108,72.84405829356851,115.55783680289304,124.33364644878937,124.41812943393008,123.80032434435468,112.387305743801,74.49501213534951,47.92381070749681,24.182975367729,1.990746641047469,0.0,0.0,0.0,0.0,0.0,0.0,0.0,0.0,0.0,0.0,0.0,0.0,26.050905334342808,78.86542488648439,123.57404392600418,131.75289009980474,128.64860561055872,128.801196024249,102.65054866339646,80.23352820532725,81.18331048761424,84.13239936098499,44.23744961578338,4.817018839984556,0.0,0.0,0.0,0.0,0.0,0.0,0.0,0.0,0.0,0.0,0.0,0.0,25.73158198081528,76.0391526875473,118.77712236001788,136.0027192069502,134.09459469233994,134.0391411029744,119.08751359176838,84.38957003381427,84.94224506876576,87.11535586276018,42.63971633292363,4.595948826003963,0.0,0.0,0.0,0.0,0.0,0.0,0.0,0.0,0.0,0.0,0.0,0.0,25.41188645554705,73.90102603717942,114.99250792875748,139.0191711653891,136.7593443558097,92.21038699305366,136.5148275221645,130.0397835773255,88.54672837752342,89.06479144058906,43.647557406761095,5.480601053667046,0.0,0.0,0.0,0.0,0.0,0.0,0.0,0.0,0.0,0.0,0.0,0.0,25.043436432246065,72.59842494470118,114.25523571041478,141.412235458142,77.24350044047861,131.50762892267812,133.91632442854075,100.7383302596384,64.3406783618705,50.061937357864686,24.699177572091095,2.334633329461726,0.0,0.0,0.0,0.0,0.0,0.0,0.0,0.0,0.0,0.0,0.0,0.0,2.777145529163622,6.144183267349535,6.734075476371827,22.806684270590555,50.70095623666043,69.52651939689677,89.43324146389003,70.55855163388026,69.82127941553755,33.10430416424216,16.613746505208265,1.056595571870212,0.0,0.0,0.0,0.0,0.0,0.0,0.0,0.0,0.0,0.0,0.0,0.0,1.0815310784976528,4.645075495777427,17.40014539332442,27.00924756666609,27.967961970730077,29.884646435376645,20.54574094578903,23.20006980051899,19.980412071653472,10.911703265819918,5.03808885396515,0.0,0.0,0.0,0.0,0.0,0.0,0.0,0.0,0.0,0.0,0.0,0.0,0.0,0.4670755345886284,0.4425121997018957,7.790671048242039,13.123892092588688,23.273759805179186,16.711999844755198,19.95584873676674,11.993234344317573,24.478107558110505,20.27554426203497,9.80598102417624,0.2456333488673265,0.0,0.0,0.0,0.0,0.0,0.0,0.0,0.0,0.0,0.0,0.0,0.0,26.61623420847837,72.62298827958791,111.82197686966543,139.29867214266085,87.4670581577293,75.71945716227906,101.47560247798108,79.72551377926072,126.1747800500722,41.55855742616669,42.88572185353166,5.750797737421105,0.0,0.0,0.0,0.0,0.0,0.0,0.0,0.0,0.0,0.0,0.0,0.0,7.397285518313609,36.32396189310767,73.01637380951635,83.70700706135567,73.06550047928981,79.700950444374,93.68493142973904,80.41365932782995,107.8408557593112,61.73584834865473,31.654323062443513,4.399069975169392,0.0,0.0,0.0,0.0,0.0,0.0,0.0,0.0,0.0,0.0,0.0,0.0,29.49163307718892,76.99749491987058,105.30934357901492,123.44713336242272,142.14764681778112,144.00068991476664,142.85179575120085,121.72807209209216,95.75681151026086,63.40689946443397,32.29334194123927,4.718765500437625,0.0,0.0,0.0,0.0,0.0,0.0,0.0,0.0,0.0,0.0,0.0,0.0,28.53291867312493,66.13491832382412,83.51012821052109,93.9555002852338,98.55107693949708,109.61016021463736,132.44177999185538,112.51049458997537,64.97969724066627,35.881449693405784,17.817722086398874,1.8924933015005383,0.0,0.0,0.0,0.0,0.0,0.0,0.0,0.0,0.0,0.0,0.0,0.0,14.08223432491197,34.259525247400006,54.215373984166746,145.56529991270338,147.42020386839238,150.74555837161898,150.85348817642432,128.34193609621528,102.45106461037692,85.99251372104393,20.57030428067576,6.0459299278026055,0.0,0.0,0.0,0.0,0.0,0.0,0.0,0.0,0.0,0.0,0.0,0.0,29.614449751622583,73.95015270695289,68.54324165794606,95.62655140101305,122.70948897233932,136.19810937082192,135.3990566435217,130.12501090594765,85.21579129818619,78.05297397651866,24.52723422788397,3.514417747506309,0.0,0.0,0.0,0.0,0.0,0.0,0.0,0.0,0.0,0.0,0.0,0.0,5.03808885396515,25.583829799754184,44.67958964374456,48.68564626072624,71.7137727170381,103.46634911902854,113.39514681763843,110.077235749226,124.79886112467445,58.71269729888307,19.095759843990383,2.5069488454095628,0.0,0.0,0.0,0.0,0.0,0.0,0.0,0.0,0.0,0.0,0.0,0.0,33.15343083401562,83.04342484767318,125.09324897157452,148.48870893596524,148.56388762758826,150.38901784402063,145.19796640462448,99.22917385106716,99.28053355128488,93.9551281134931,46.768589624338965,6.979708825239154,0.0,0.0,0.0,0.0,0.0,0.0,0.0,0.0,0.0,0.0,0.0,0.3438866884142571,33.866139717471576,80.75791818798493,121.33319787520088,145.61479875421753,148.00079178389697,150.0540632773834,147.23821188718614,95.42036825666077,94.91272600233496,88.96616592930141,45.31860852254032,7.225342174106481,0.0,0.0,0.0,0.0,0.0,0.0,0.0,0.0,0.0,0.0,0.0,1.2534744227047814,35.46350082859062,83.21536819188032,122.43445405595608,130.104169288468,127.06017662121668,127.7579986350443,98.41374556717577,78.29041954709041,79.03439085676585,81.48365308236565,47.333918498474524,7.692417708695109,0.0,0.0,0.0,0.0,0.0,0.0,0.0,0.0,0.0,0.0,0.0,0.9092155625498162,30.59735531883259,59.05695615903803,89.13810927350855,100.2221280552763,124.67567227850007,107.07902020608178,132.48644060074034,76.28478603641462,79.75007711414746,87.09860813442832,42.68921517443781,6.955145490352421,0.0,0.0,0.0,0.0,0.0,0.0,0.0,0.0,0.0,0.0,0.0,0.0,28.31184865914434,43.69668407653455,40.64934186361687,44.9255951643526,71.34495052199641,93.04591255094329,55.444285071984794,51.97899399425195,53.404411761163864,33.15343083401562,10.051614373043568,4.104309956528601,0.0,0.0,0.0,0.0,0.0,0.0,0.0,0.0,0.0,0.0,0.0,0.0,11.354215465521811,33.93982972213178,32.17052526680561,119.58659589605791,129.96386054222103,132.90178426337056,129.8890540223387,107.1441502607057,82.61319431541465,73.56532712706074,47.06372181472046,7.716981043581841,0.0,0.0,0.0,0.0,0.0,0.0,0.0,0.0,0.0,0.0,0.0,2.777145529163622,39.15023409204477,90.2196403520062,129.9206886202989,139.53425685452905,139.84129854061322,142.56782871304054,108.64772409316627,91.38379355694104,89.99224341843356,71.00106383358214,38.830538566776525,8.306873252604133,0.0,0.0,0.0,0.0,0.0,0.0,0.0,0.0,0.0,0.0,0.0,2.899962203597285,39.27305076647843,88.67140591066061,130.27909000660077,142.4595267364945,141.34636106003666,143.353855429416,125.69579501978087,92.28705437163951,92.20964264957225,92.456020341921,48.02206404704376,8.527943266584726,0.0,0.0,0.0,0.0,0.0,0.0,0.0,0.0,0.0,0.0,0.0,3.416164407959379,40.37877300812211,89.11354593862181,127.94445667713906,144.75247683099693,143.57306458469307,145.71789032639367,133.5672273357566,96.1271223922654,96.75534829058064,92.97222254628308,48.09575405170394,8.306873252604133,0.0,0.0,0.0,0.0,0.0,0.0,0.0,0.0,0.0,0.0,0.0,3.6617977568267057,39.641500789779414,87.78675368299754,127.64932448675756,147.52999453190128,147.25235441333302,149.42993126821597,140.2815777098709,98.72897503155554,98.87709938435732,92.11213365350672,47.776430698176426,8.405126592151062,0.0,0.0,0.0,0.0,0.0,0.0,0.0,0.0,0.0,0.0,0.0,3.883239942548007,38.38802636707464,84.64078595879222,86.72978593938663,77.8330204777602,87.56531149727624,39.37130410602536,122.83230564677298,146.92707631195418,126.4204133989395,89.70343814764409,45.048411838786265,8.55250660147146,0.0,0.0,0.0,0.0,0.0,0.0,0.0,0.0,0.0,0.0,0.0,3.760051096373635,37.25774079054422,53.723735114691394,95.99500142431404,147.67179196511103,127.64932448675756,150.308256576287,150.4783390617906,143.524682258401,101.5221239455696,92.82484253696268,47.35848183336125,8.675323275905123,0.0,0.0,0.0,0.0,0.0,0.0,0.0,0.0,0.0,0.0,0.0,4.37450664028266,37.921323004226714,81.56888041098779,97.1498503357312,118.16303898784952,51.88074065470503,111.67496903208576,127.3426549724141,118.33498233205668,68.86293718321429,44.67958964374456,20.889999805943997,7.9871777273359,0.0,0.0,0.0,0.0,0.0,0.0,0.0,0.0,0.0,0.0,0.0,3.6617977568267057,6.438943285990327,25.87896199013568,33.66963303837772,41.63224743082689,79.20931157489863,117.4008312628794,69.67389940621716,65.56958944968856,39.59237412000595,33.10430416424216,19.95584873676674,8.675323275905123,0.0,0.0,0.0,0.0,0.0,0.0,0.0,0.0,0.0,0.0,0.0,2.3591966643484588,13.541468785663143,86.95085595336721,92.48058367680773,110.05267241433928,116.7867478907111,110.1509257538862,123.9629633950441,110.71625462802176,103.63829246323569,71.76289938681157,46.252759591717584,9.41259549424781,0.0,0.0,0.0,0.0,0.0,0.0,0.0,0.0,0.0,0.0,0.0,0.2456333488673265,2.2855066596882607,9.289778819814146,14.327867673779297,14.84406987814139,23.69170866999435,29.245627556580885,68.1993549695318,60.08898839602152,45.540050708261624,29.46706974230219,8.429689927037796,0.0,0.0,0.0,0.0,0.0,0.0,0.0,0.0,0.0,0.0,0.0,0.0,5.9473044165149656,43.47561406255396,90.95691257034888,126.69061008269357,142.69846099402906,141.711833709412,143.0911021804761,124.46018484063008,91.41840552882688,91.0313469184905,93.31610923469736,49.49660848372912,9.584911010195649,0.0,0.0,0.0,0.0,0.0,0.0,0.0,0.0,0.0,0.0,0.0,6.46350662087706,43.500177397440694,88.20433037607198,124.11034340436451,142.66794291129102,135.93163440447495,142.41561047109096,136.8103318842867,92.7749715237078,91.73586802365088,28.16446864982394,48.759336265386445,9.97792436838337,0.0,0.0,0.0,0.0,0.0,0.0,0.0,0.0,0.0,0.0,0.0,6.635449965084189,44.950158499239336,93.73405809951252,133.54787440523975,143.935187688402,143.76845474856478,146.05284489303094,108.65367884101762,94.99125423962435,95.93582611754148,97.15022250747188,42.05019629564205,10.002487703270102,0.0,0.0,0.0,0.0,0.0,0.0,0.0,0.0,0.0,0.0,0.0,6.979708825239154,45.31860852254032,93.61086925333814,115.75694868417187,121.43815030608056,132.00596688348622,121.28667640761238,85.27087271581098,83.34376744242459,82.75536392036513,72.43578589401176,31.16268419296816,10.198994382363962,0.0,0.0,0.0,0.0,0.0,0.0,0.0,0.0,0.0,0.0,0.0,7.274468843879945,45.49092403848815,90.31789369155312,130.64791220164247,145.9359829664486,146.71233321756563,150.05666847956834,136.09650648560864,98.5856889113829,88.72053258043408,92.72658919741576,49.0299051208812,10.911703265819918,0.0,0.0,0.0,0.0,0.0,0.0,0.0,0.0,0.0,0.0,0.0,7.667854373808376,45.785684057128954,90.61265371019392,126.66641891954752,142.1361094938192,140.49297125859306,141.9931955453873,127.01477166885029,90.86759135257894,90.16530327786282,91.43961931804726,50.60270289711351,11.157708786427952,0.0,0.0,0.0,0.0,0.0,0.0,0.0,0.0,0.0,0.0,0.0,7.839797718015505,46.7931529592257,91.62049478403137,130.7703567043354,137.48433490670902,135.2836834039022,136.73552536440437,105.82703447033984,86.45996142737327,86.193858632767,88.29848982647114,50.52901289245331,10.936638772447358,0.0,0.0,0.0,0.0,0.0,0.0,0.0,0.0,0.0,0.0,0.0,4.128873291415333,17.277328718890757,55.78817176039905,95.40510921529172,120.10428678738285,128.19009002600637,134.89922999575074,139.68014817688663,137.65478956395333,95.8424110106237,89.18760811502271,47.65361402374276,10.66606991695259,0.0,0.0,0.0,0.0,0.0,0.0,0.0,0.0,0.0,0.0,0.0,7.9871777273359,31.064430853421225,67.33926607675544,92.08757031862,87.36880481818237,139.6191120114105,77.44000711957246,140.02105749137522,94.79065367138271,87.09860813442832,50.84833624598083,26.49341753404471,8.527943266584726,0.0,0.0,0.0,0.0,0.0,0.0,0.0,0.0,0.0,0.0,0.0,2.383759999235191,15.335708747616753,73.06550047928981,54.01886730507289,105.28515241586888,122.41472895369854,124.82305228782046,60.01529839136133,58.88501281483091,58.98326615437784,42.6151529980369,24.256665372389204,7.225342174106481,0.0,0.0,0.0,0.0,0.0,0.0,0.0,0.0,0.0,0.0,0.0,8.503379931697992,22.4627975821763,64.80775389645915,89.94944366825213,59.54822285677269,125.27524095278076,126.31434445283772,111.10926798620947,97.59236253543308,64.07048167811645,44.876468494579136,23.003563121425124,7.61872770403491,0.0,0.0,0.0,0.0,0.0,0.0,0.0,0.0,0.0,0.0,0.0,0.2456333488673265,22.880374275250755,5.43147438389358,8.355999922377599,32.09683526214542,64.78319056157241,83.58419038692202,66.08579165405065,59.44996951722576,67.63402609539624,54.8543928629625,31.11355752319469,8.94589213139989,0.0,0.0,0.0,0.0,0.0,0.0,0.0,0.0,0.0,0.0,0.0,0.0,27.50088643614145,29.073684212373756,27.869708631183148,109.6105323863781,92.48058367680773,54.28906398882695,69.20682387162853,45.195791848106666,39.54324745023249,37.012107441676896,9.41259549424781,5.160905528398813,0.0,0.0,0.0,0.0,0.0,0.0,0.0,0.0,0.0,0.0,0.0,2.432886669008657,7.471347694714515,18.48130430008137,69.47739272712332,145.22699580039972,144.86301183798724,146.96578217298782,146.44957996862573,121.95435251044265,95.92763833924587,94.86471584778364,51.85617731981829,11.772164330336976,0.0,0.0,0.0,0.0,0.0,0.0,0.0,0.0,0.0,0.0,0.0,9.53578434042218,49.61942515816279,93.73405809951252,127.77251333293192,148.52890348396173,149.27808519800706,150.6305573037402,140.19746689647084,100.61960747435252,99.38399729520172,91.7187481235783,50.03737402297795,11.157708786427952,0.0,0.0,0.0,0.0,0.0,0.0,0.0,0.0,0.0,0.0,0.0,9.486285498908009,49.05446845576794,92.456020341921,125.63438668256408,143.3907004317461,143.94374763843828,146.7387574111559,129.7085507280953,96.08618350078751,97.20158220768958,91.9398181375589,50.627266232000245,11.550722144615676,0.0,0.0,0.0,0.0,0.0,0.0,0.0,0.0,0.0,0.0,0.0,10.149867712590495,49.49660848372912,93.38979923935754,127.3791278030035,141.49225238239424,141.1818611506437,143.04755808681324,107.35889335509424,91.9822457159996,92.7284500561193,93.9551281134931,51.782115143417386,11.993234344317573,0.0,0.0,0.0,0.0,0.0,0.0,0.0,0.0,0.0,0.0,0.0,10.346746563425066,49.22641179997507,92.1612603232802,112.93700340482684,119.74476888585885,127.71929277401064,113.40519545463756,80.34480755579897,80.43971134967951,80.62803025047779,71.7093066561496,50.16019069741161,12.26343102807163,0.0,0.0,0.0,0.0,0.0,0.0,0.0,0.0,0.0,0.0,0.0,10.444999902972,48.955842944480295,88.91703925952794,128.3374700353268,146.34909359863454,146.12355752376544,148.71052329342723,136.78353551895574,99.92774020837622,100.64826469838704,91.07972924478254,50.406196218019645,12.337493204472535,0.0,0.0,0.0,0.0,0.0,0.0,0.0,0.0,0.0,0.0,0.0,9.53578434042218,41.28836074241263,77.9070826541611,111.33071017193076,79.97114712812805,85.91882371638373,147.94943208367923,145.71305209376445,133.7198177494469,98.74758361859092,89.75256481741756,44.139196276236454,12.607689888226597,0.0,0.0,0.0,0.0,0.0,0.0,0.0,0.0,0.0,0.0,0.0,11.575285479502408,43.79493741608148,72.40191826560732,99.16553248340608,102.21287469632378,124.13490673925124,138.41364774325706,131.36024891335774,104.74401470487936,60.70344393993054,43.991444095175346,31.50694305312312,9.093272140720286,0.0,0.0,0.0,0.0,0.0,0.0,0.0,0.0,0.0,0.0,0.0,2.728018859390157,31.50694305312312,58.417937280242285,78.25096934257536,111.18295799086968,117.62227344860072,131.8027611130596,146.94791792943383,140.99428659332685,118.99819237399844,86.99998262314067,47.67817735862949,13.173018762362156,0.0,0.0,0.0,0.0,0.0,0.0,0.0,0.0,0.0,0.0,0.0,8.74901328056532,27.50088643614145,57.1644628575375,82.0847104436092,76.1865326968677,78.91455155625785,117.89247013235476,112.58381242289484,127.40369113789022,102.80276690534606,88.27802038073219,49.10359512554139,13.639722125210076,0.0,0.0,0.0,0.0,0.0,0.0,0.0,0.0,0.0,0.0,0.0,11.845854334997176,48.906716274706824,91.57136811425792,125.92914670120484,117.54858344394052,147.82028848965354,150.78686943483757,150.60524962537204,114.23030020378737,62.47312056699741,89.45780479877676,49.39835514418219,13.492342115889675,0.0,0.0,0.0,0.0,0.0,0.0,0.0,0.0,0.0,0.0,0.0,11.50159547484221,48.46457624674565,90.2933303566664,74.22034939070696,124.71028425038593,136.23979260578122,138.92538388673069,127.83578252885228,88.71978823695267,90.66029169300457,72.20503941477274,39.10073525053059,10.248493223878135,0.0,0.0,0.0,0.0,0.0,0.0,0.0,0.0,0.0,0.0,0.0,7.0533988298993515,1.8679299666138056,26.394792022757063,51.97899399425195,117.54858344394052,80.0697726394157,69.74758941087737,107.52153240578367,108.77463465674776,56.648260653175406,38.3634630321879,27.353506426821053,14.254177669119096,0.0,0.0,0.0,0.0,0.0,0.0,0.0,0.0,0.0,0.0,0.0,12.804196567320457,54.80526619318905,101.74579916173514,137.62762102688163,152.2997475608159,152.18735169512206,153.72851487339415,137.95066609781622,105.44667495133618,104.62194237392713,98.3545702604032,53.79742511935159,14.426121013326227,0.0,0.0,0.0,0.0,0.0,0.0,0.0,0.0,0.0,0.0,0.0,12.828759902207189,52.71626621259465,94.74152700160924,128.01777451005856,150.38231875268792,151.29227865871914,153.37606823494363,151.1798827930253,102.63156790462034,102.50130779537253,92.9967858811698,52.593449538160975,14.376994343552765,0.0,0.0,0.0,0.0,0.0,0.0,0.0,0.0,0.0,0.0,0.0,7.274468843879945,51.905303989591765,93.61124142507884,126.66641891954752,149.8419253851798,151.6078802948396,153.33177979779938,116.83550238874383,142.07358464138022,104.66846384151565,92.60340035124138,52.052683998912144,14.1804876644589,0.0,0.0,0.0,0.0,0.0,0.0,0.0,0.0,0.0,0.0,0.0,12.804196567320457,50.23388070207181,90.73584255636828,122.75898781385352,144.97577987542178,152.91904133735412,155.17589077300786,138.97934878913333,133.5772759727557,29.86008310048991,46.990031810060266,51.63473513409699,15.163765403409622,0.0,0.0,0.0,0.0,0.0,0.0,0.0,0.0,0.0,0.0,0.0,13.394088776342748,41.06691855669133,89.72837365427155,121.35776121008762,143.05872323903452,154.70621003623427,137.79956437108874,104.9163302208272,40.60021519384341,109.31577236773728,70.92737382892194,50.92202625064104,15.458525422050416,0.0,0.0,0.0,0.0,0.0,0.0,0.0,0.0,0.0,0.0,0.0,13.271272101909084,49.34922847440873,89.43286929214933,120.72730228132816,126.74569150031836,137.54723193088867,87.09860813442832,132.76445289104927,82.79258109443593,78.52860946114357,68.42824059006726,43.54930406721416,15.089703227008718,0.0,0.0,0.0,0.0,0.0,0.0,0.0,0.0,0.0,0.0,0.0,13.099328757701956,50.332134041618744,92.75115253230248,126.19934338495892,149.3257231808177,150.89182186571725,153.15164867529666,153.1494156448524,105.05366159314846,101.37102221884211,90.26876702177964,51.85617731981829,15.212892073183088,0.0,0.0,0.0,0.0,0.0,0.0,0.0,0.0,0.0,0.0,0.0,13.246708767022357,49.76717733922389,89.50693146855023,124.9216777991081,149.10465316683712,153.95181791781903,155.32438729755037,151.8520249567441,102.78266963134784,95.4903365439139,89.11354593862181,51.38910178522966,15.335708747616753,0.0,0.0,0.0,0.0,0.0,0.0,0.0,0.0,0.0,0.0,0.0,8.257746582830666,48.12031738659068,81.56888041098779,109.3894623723975,142.56708436955913,143.722305452717,131.53256442930555,145.09859654985544,122.93055898631992,109.73334906081176,79.7746404490342,50.578139562226774,15.532215426710613,0.0,0.0,0.0,0.0,0.0,0.0,0.0,0.0,0.0,0.0,0.0,13.566032120549876,42.07475963052879,88.08151370163833,118.82662120153202,140.03594436100354,141.7304422964474,138.18178474879596,137.60975678332764,83.80526040090261,97.5927347071738,87.12317146931504,42.32039297939611,16.195797640393103,0.0,0.0,0.0,0.0,0.0,0.0,0.0,0.0,0.0,0.0,0.0,13.934854315591574,48.366322907198715,86.55784259517948,117.40120343462011,139.17548329648648,139.86921142116634,144.13616042838436,139.4430747780556,91.74145059976148,94.26849671916928,80.70879151821146,38.6585952225694,14.647563199047529,0.0,0.0,0.0,0.0,0.0,0.0,0.0,0.0,0.0,0.0,0.0,11.96867100943084,49.324665139522,77.39088044979901,100.93483693873225,126.7151734175803,109.21714685644966,113.83765901734036,121.23494453565397,107.9145457639714,106.88251352698792,78.76717154693745,30.7451074998937,15.065139892121984,0.0,0.0,0.0,0.0,0.0,0.0,0.0,0.0,0.0,0.0,0.0,11.452468805068744,47.13741181938067,76.35847604107481,104.08080466293757,121.82223154249128,131.40304866353915,134.49319062663827,101.64047455911476,84.19455204168324,84.43013675355145,74.43397596987337,53.25703175184347,15.114266561895448,0.0,0.0,0.0,0.0,0.0,0.0,0.0,0.0,0.0,0.0,0.0,12.583126553339865,38.5849052179092,76.45710155236246,103.5891657934622,120.62048899174492,131.6308177688525,133.63682345126898,100.97838103239508,82.91651428409172,83.05533434337583,70.85368382426174,47.30935516358779,15.384835417390216,0.0,0.0,0.0,0.0,0.0,0.0,0.0,0.0,0.0,0.0,0.0,12.607689888226597,47.53042517756839,68.54324165794606,101.32822246866068,114.50124123102285,98.5756402743838,52.37200735243968,95.20860253619789,119.46526790858708,96.06869142897422,75.12993712499747,47.014595144947,15.605905431370813,0.0,0.0,0.0,0.0,0.0,0.0,0.0,0.0,0.0,0.0,0.0,13.02526658130105,46.326449596377785,81.86364042962859,102.77820357045933,126.29759672450584,131.7290711083994,142.78815438353973,128.63223005396756,113.98466685492004,91.17798258432948,71.91027939613195,45.83481072690242,6.217873272009733,0.0,0.0,0.0,0.0,0.0,0.0,0.0,0.0,0.0,0.0,0.0,11.89498100477064,49.64398849304951,88.54858923622696,119.36701456904017,140.62583657002585,147.3282774484375,148.18799416947311,146.82472908325946,108.68754646942206,97.26447923186926,89.43324146389003,52.445697357099874,16.83481651918886,0.0,0.0,0.0,0.0,0.0,0.0,0.0,0.0,0.0,0.0,0.0,12.214304358298168,49.34922847440873,87.27055147863545,117.9910956436424,139.32323547754757,145.2407661548059,73.67995602319883,84.00176707999645,104.27731134203142,117.79458896454854,87.36880481818237,51.462791789889856,15.630468766257543,0.0,0.0,0.0,0.0,0.0,0.0,0.0,0.0,0.0,0.0,0.0,14.303304338892566,26.98468423177935,85.35386701398889,115.48414679823284,136.76715996236456,115.5329012962656,107.81629242442446,67.43751941630237,16.29405097994003,54.82982952807578,60.33499391662956,42.59058966315017,15.950164291525777,0.0,0.0,0.0,0.0,0.0,0.0,0.0,0.0,0.0,0.0,0.0,13.148455427475422,50.627266232000245,91.2762359238764,116.25975270586846,121.85609917089572,131.29474668699308,123.39465714698288,85.10302326075164,83.57265306296006,83.62215190447422,73.8537602261095,55.19827955137676,17.03132319828272,0.0,0.0,0.0,0.0,0.0,0.0,0.0,0.0,0.0,0.0,0.0,13.762910971384445,48.88215293982009,86.63153259983969,116.76218455582438,137.94657220866844,145.92891170337515,145.17303089799705,143.70779075482935,109.29902463940542,91.6588284733243,65.004260575553,44.335702955330305,17.645778742191744,0.0,0.0,0.0,0.0,0.0,0.0,0.0,0.0,0.0,0.0,0.0,13.443215446116216,49.521171818615855,56.10786728566729,118.62974235069746,77.12031159430424,148.8653467375618,151.32986800453065,118.18760232273628,139.6179954961884,118.8016856949046,90.12138701245928,53.60091844025772,17.40014539332442,0.0,0.0,0.0,0.0,0.0,0.0,0.0,0.0,0.0,0.0,0.0,13.443215446116216,49.00534178599447,87.17229813908851,117.9910956436424,137.92200887378172,113.10001462725694,152.07123411202113,150.25950207825426,138.3645210734836,118.212165657623,88.84334925486775,53.13384290566909,17.891412091059074,0.0,0.0,0.0,0.0,0.0,0.0,0.0,0.0,0.0,0.0,0.0,13.885727645818111,35.0704874704029,86.28727373968472,115.95085016108077,136.61977995304417,148.55495550581128,150.65177109296053,147.8266154092456,120.43738049531656,85.57456485622876,60.65431727015707,50.52901289245331,16.416867654373696,0.0,0.0,0.0,0.0,0.0,0.0,0.0,0.0,0.0,0.0,0.0,13.885727645818111,48.26769739591108,85.32893150736143,115.77927898861437,137.13560998566552,81.49519040632761,108.82413349826192,23.888215349088213,131.5080010944188,117.64683678348744,91.6450581189181,54.55926067258101,16.90850652384906,0.0,0.0,0.0,0.0,0.0,0.0,0.0,0.0,0.0,0.0,0.0,13.59059545543661,48.46457624674565,86.92629261848047,117.44995793265286,139.15129213334046,104.81770470953954,155.35602189551057,124.79848895293372,59.27802617301864,6.316126611556664,9.658601014855844,8.921328796513157,5.234595533059011,0.0,0.0,0.0,0.0,0.0,0.0,0.0,0.0,0.0,0.0,0.0,13.59059545543661,48.513702916519115,85.84476153998283,114.7677161973698,121.06374553492824,129.78745113712543,67.4620827511891,100.93483693873225,127.0471506102919,85.67095733707215,79.11403560927737,46.252759591717584,18.825563160236328,0.0,0.0,0.0,0.0,0.0,0.0,0.0,0.0,0.0,0.0,0.0,7.741544378468573,47.45673517290819,84.34602594015143,93.16872922537694,136.96366664145842,96.2655702798088,60.605190600383615,91.52224144448444,116.88500123025804,77.39088044979901,21.184759824584784,1.351727762251712,17.42470872821115,0.0,0.0,0.0,0.0,0.0,0.0,0.0,0.0,0.0,0.0,0.0,13.59059545543661,47.94837404238355,86.06620372570413,117.35170459310594,137.03735664611864,107.61941357358992,76.77642490588998,113.41971015252516,118.5069256762638,118.55605234603728,86.95085595336721,23.052689791198592,10.469563237858727,0.0,0.0,0.0,0.0,0.0,0.0,0.0,0.0,0.0,0.0,0.0,13.566032120549876,48.09575405170394,85.72231703728987,116.4916157003296,138.143451059503,100.8365835991853,35.0704874704029,134.43252663290286,121.80027340978953,88.99072926418815,10.54325324251893,18.48130430008137,13.369525441456016,0.0,0.0,0.0,0.0,0.0,0.0,0.0,0.0,0.0,0.0,0.0,8.380563257264331,30.327158635078536,25.313633116000123,27.55001310591492,45.83481072690242,65.2257027612743,126.1747800500722,110.69169129313502,33.522253029057325,6.389816616216862,28.557854179752376,20.71768428999616,12.484873213792932,0.0,0.0,0.0,0.0,0.0,0.0,0.0,0.0,0.0,0.0,0.0,13.22214543213562,48.02206404704376,85.89426038149699,117.25382342529971,136.59521661815745,122.5375456281322,153.99498983974115,149.30115984593095,137.13560998566552,117.35170459310594,91.05516590989582,54.928082867622706,18.01460093723345,0.1719433442071285,0.0,0.0,0.0,0.0,0.0,0.0,0.0,0.0,0.0,0.0,11.624412149275871,48.02206404704376,87.36880481818237,119.36701456904017,142.5183298715264,113.56709016184558,142.17407101137144,108.9711413358416,128.16552669111965,114.67318457522995,92.33320366748733,54.387317328373875,19.931285401880007,0.1719433442071285,0.0,0.0,0.0,0.0,0.0,0.0,0.0,0.0,0.0,0.0,10.813449926272988,47.702740693516226,85.0832981584941,107.27552688517564,125.781022348403,131.9505132941207,126.4204133989395,117.36547494751214,91.88808626560046,91.9401903092996,83.5060343213733,55.370595067324594,17.99003760234671,0.1965066790938612,0.0,0.0,0.0,0.0,0.0,0.0,0.0,0.0,0.0,0.0,12.902449906867387,49.447481813955655,88.62227924088715,119.24419789460649,127.40369113789022,134.18652111229483,153.81820826290482,153.4672503114171,146.76964766563466,113.41375540467384,93.26698256492388,56.74688616446304,17.670342077078477,0.3688221950416978,0.0,0.0,0.0,0.0,0.0,0.0,0.0,0.0,0.0,0.0,11.305088795748349,39.936632980160915,72.0085327356789,104.52294469089875,123.00424899098012,133.891761093654,141.43679879302871,150.7511409477296,138.16801439438976,118.65430568558418,90.39158369621332,55.0017728722829,18.235670951214036,0.1473800093203959,0.0,0.0,0.0,0.0,0.0,0.0,0.0,0.0,0.0,0.0,11.993234344317573,44.311139620443576,71.4923305313168,68.98575385764794,58.56531728956268,95.6019880661263,130.5984133601283,95.6019880661263,121.16125453099376,97.9857480653615,76.40760271084828,19.12032317887712,15.655032101144275,0.0,0.0,0.0,0.0,0.0,0.0,0.0,0.0,0.0,0.0,0.0,11.624412149275871,36.692411916408666,86.65609593472642,42.467772988716504,15.728722105804474,11.52615880972894,47.13741181938067,88.62227924088715,150.30862874802773,108.6518179823141,70.11603943417835,49.96368401831775,20.20185425737477,0.3933855299284304,0.0,0.0,0.0,0.0,0.0,0.0,0.0,0.0,0.0,0.0,0.0,11.059455446881024,44.28657628555684,67.92878611403702,122.56173679127824,142.39514102535202,149.20886125423536,135.80881773004126,119.80952676874206,65.76609612878242,81.7162604203082,42.36951964916957,18.161980946553836,0.1965066790938612,0.0,0.0,0.0,0.0,0.0,0.0,0.0,0.0,0.0,0.0,10.936638772447358,47.333918498474524,71.88571606124522,115.90172349130732,136.7917232972513,149.37484985059118,136.37414660417684,129.46812778359788,139.47061548686798,118.16303898784952,90.17051368223274,55.34603173243787,18.751873155576128,0.3688221950416978,0.0,0.0,0.0,0.0,0.0,0.0,0.0,0.0,0.0,0.0,12.705943227773526,46.866842963885894,84.81272930299934,115.5824001377798,128.59017464726753,141.2827196923756,136.8196361778044,91.59593144914464,83.88564949689554,84.27642982463902,74.52441370286543,56.378063969421355,18.776436490462864,0.5898922090222917,0.0,0.0,0.0,0.0,0.0,0.0,0.0,0.0,0.0,0.0,11.845854334997176,46.64577294990531,85.40262151202164,100.54182358054452,76.8746782454369,30.69598083012023,161.63828087866278,152.6186987426027,146.96615434472852,102.99927358443992,30.59735531883259,43.991444095175346,18.94837983466999,0.5898922090222917,0.0,0.0,0.0,0.0,0.0,0.0,0.0,0.0,0.0,0.0,12.312557697845094,46.00675407110955,84.27233593549123,115.95122233282147,139.69168550084856,152.84014092832402,157.19008423371994,24.723740906977827,18.06372760700691,55.66535508596538,71.73833605192483,39.49412078045902,13.320398771682548,0.0,0.0,0.0,0.0,0.0,0.0,0.0,0.0,0.0,0.0,0.0,10.56781657740566,46.08044407576975,84.61622262390549,116.51617903521634,139.2495454728874,32.71091863431373,29.295126398095057,27.992525305616812,52.052683998912144,67.63402609539624,72.180476079886,54.952646202509435,18.92381649978326,0.0,0.0,0.0,0.0,0.0,0.0,0.0,0.0,0.0,0.0,0.0,7.5204743644879795,42.222139639849175,80.88036269067787,115.87716015642056,97.86293139092786,42.467772988716504,114.00960236154748,117.89247013235476,93.26698256492388,95.72480474055996,46.30188626149105,55.76360842551232,10.64150658206586,0.0,0.0,0.0,0.0,0.0,0.0,0.0,0.0,0.0,0.0,0.0,13.197582097248883,26.49341753404471,68.00247611869722,90.3670203613266,5.136342193512081,11.845854334997176,16.90850652384906,36.373088562881144,77.21893710559188,115.95122233282147,74.44179157642826,2.5560755151830277,19.144886513763858,0.0,0.0,0.0,0.0,0.0,0.0,0.0,0.0,0.0,0.0,0.0,11.50159547484221,45.540050708261624,83.04342484767318,114.23067237552809,135.26805219079247,149.72841300426384,153.91943897637742,147.973995418566,127.80973050700273,101.08221694805265,88.89247592464122,54.41188066326061,21.08650648503786,0.0,0.0,0.0,0.0,0.0,0.0,0.0,0.0,0.0,0.0,0.0,12.116051018751234,43.81950075096821,79.60269710482707,112.73156460395596,127.19825233701938,118.33461016031596,129.1729955932164,134.2825414213975,91.25986036728526,91.19063642351357,85.18490104370741,53.30615842161693,18.260234286100772,0.0,0.0,0.0,0.0,0.0,0.0,0.0,0.0,0.0,0.0,0.0,11.944107674544108,44.18832294600991,80.36453265805648,110.78994463268197,118.67886902047093,136.22639442311575,131.31112224358426,129.64007112780502,116.44286120229684,101.40191247332086,78.20184267280189,53.035589566122155,19.931285401880007,0.0,0.0,0.0,0.0,0.0,0.0,0.0,0.0,0.0,0.0,0.0,11.452468805068744,43.32786188149285,78.64435487250378,108.33249462878656,129.79936063282807,110.077235749226,91.84156479801196,144.76885238758803,22.487360917063032,35.53719083325082,39.936632980160915,55.24740622115023,18.55499430474156,0.0,0.0,0.0,0.0,0.0,0.0,0.0,0.0,0.0,0.0,0.0,11.52615880972894,43.54930406721416,79.35706375595974,109.21714685644966,131.09005222960366,144.16481765241886,97.71555138160744,91.7187481235783,137.13598215740626,116.270545686349,88.84334925486775,55.2965328909237,21.061943150151123,0.1473800093203959,0.0,0.0,0.0,0.0,0.0,0.0,0.0,0.0,0.0,0.0,10.862576596046452,44.23744961578338,81.642570415648,112.87894461327636,135.1452355163588,147.973995418566,137.75006552957456,130.25452667171405,79.89745712346786,103.66285579812242,82.55178597819783,52.07724733379888,20.619430950449228,0.1473800093203959,0.0,0.0,0.0,0.0,0.0,0.0,0.0,0.0,0.0,0.0,10.444999902972,41.92700744946768,66.15948165871085,100.2221280552763,123.83977454886974,119.2445700663472,122.95549449294737,89.5560581383237,109.0206401773558,91.84156479801196,80.2171526487361,52.00355732913869,7.1762155043330145,0.0,0.0,0.0,0.0,0.0,0.0,0.0,0.0,0.0,0.0,0.0,2.6543288547299584,14.08223432491197,39.49412078045902,45.73655738735549,93.48842475064518,130.40190668103443,121.67745673535585,121.01350234993264,110.02810907945252,84.46884261458509,58.71269729888307,44.77821515503221,17.227829877376582,0.0,0.0,0.0,0.0,0.0,0.0,0.0,0.0,0.0,0.0,0.0,10.764323256499525,27.50088643614145,42.59058966315017,73.7290826929723,111.96972905072654,112.85438127838962,105.38303358367511,131.45887442464536,129.8365778068989,97.19934917724537,77.24350044047861,39.936632980160915,14.1804876644589,0.0,0.0,0.0,0.0,0.0,0.0,0.0,0.0,0.0,0.0,0.0,9.191525480267217,42.02563296075532,77.26806377536535,107.52116023404297,98.18225474445536,114.1078557010944,49.61942515816279,141.09291210461447,125.24062898089493,90.95691257034888,23.29832314006592,10.27305655876487,0.0,0.0,0.0,0.0,0.0,0.0,0.0,0.0,0.0,0.0,0.0,0.0,10.690633251839325,42.07475963052879,77.34175378002554,108.4553113032202,132.34315448056773,81.44606373655414,133.08079887065114,134.3833999631294,85.6731903675164,107.02989353630832,69.7721527457641,46.62120961501857,13.394088776342748,0.0,0.0,0.0,0.0,0.0,0.0,0.0,0.0,0.0,0.0,0.0,10.051614373043568,42.66427966781036,80.46278599760342,98.84583695813784,114.67318457522995,121.08756452633357,98.82127362325112,93.8814381088329,116.83587456048456,118.580615680924,80.24171598362283,52.32288068266621,20.47205094112883,0.1473800093203959,0.0,0.0,0.0,0.0,0.0,0.0,0.0,0.0,0.0,0.0,10.346746563425066,42.197576304962446,79.1110582353517,110.6671279582483,133.40012222417863,147.0156531862427,133.74438108433364,150.50513542712156,138.61052659409165,119.39195007566758,90.85865923080196,55.419721737098065,18.8009998253496,0.0,0.0,0.0,0.0,0.0,0.0,0.0,0.0,0.0,0.0,0.0,10.174431047477231,42.02563296075532,69.13313386696834,95.40510921529172,88.89247592464122,36.569595241975,24.182975367729,59.54822285677269,117.08150790935188,85.79600704195006,70.60767830365371,55.05089954205637,15.138829896782182,0.0,0.0,0.0,0.0,0.0,0.0,0.0,0.0,0.0,0.0,0.0,8.74901328056532,29.614449751622583,80.53647600226361,45.81024739201568,108.60269131254064,107.96367243374488,25.41188645554705,36.96260860016273,70.53398829899352,68.46955165328585,54.63332284898191,30.449975309512197,5.9473044165149656,0.0,0.0,0.0,0.0,0.0,0.0,0.0,0.0,0.0,0.0,0.0,4.497323314716323,31.31006420228855,11.354215465521811,30.474538644398933,36.569595241975,69.37876721583567,72.47560827026751,80.46278599760342,85.03417148872066,85.9679503861572,10.813449926272988,27.20612641750066,16.933069858735788,0.0,0.0,0.0,0.0,0.0,0.0,0.0,0.0,0.0,0.0,0.0,3.2933477335257155,24.895684251184957,37.57706414407175,62.71875391586474,143.4275454340762,120.522235652198,154.31915142589787,103.78567247255609,65.1516405848734,113.8867856871138,92.60340035124138,56.132430620554025,19.562835378579017,0.0,0.0,0.0,0.0,0.0,0.0,0.0,0.0,0.0,0.0,0.0,8.233183247943934,43.008538527965335,83.82982373578935,120.62048899174492,145.09859654985544,63.80028499436239,132.5400333314023,154.4214986545926,143.4271732623355,123.98715455819011,94.44676698296846,42.8365951837582,17.94053876083254,0.0,0.0,0.0,0.0,0.0,0.0,0.0,0.0,0.0,0.0,0.0,8.94589213139989,42.32039297939611,81.17549488105936,113.37058348275173,135.93163440447495,149.54679319479828,107.42290689449604,151.88179869600074,94.12744362944092,120.8169956708388,91.128855914556,55.22284288626349,19.90672206699327,0.0,0.0,0.0,0.0,0.0,0.0,0.0,0.0,0.0,0.0,0.0,9.437158829134544,41.18973523112499,67.11782389103413,100.8365835991853,118.8016856949046,132.78566668026963,150.65288760818268,147.0156531862427,67.65858943028297,88.42540039005259,89.53149480343697,54.31362732371369,17.326455388664222,0.0,0.0,0.0,0.0,0.0,0.0,0.0,0.0,0.0,0.0,0.0,9.093272140720286,40.501589682555775,77.48913378934593,109.36452686577005,132.22070997787478,145.8113054333114,150.5055075988623,149.27622433930352,137.75006552957456,118.53148901115053,90.2933303566664,54.4855706679208,19.341393192857716,0.0,0.0,0.0,0.0,0.0,0.0,0.0,0.0,0.0,0.0,0.0,8.110366573510273,40.79672187293726,79.97114712812805,112.6083757577816,100.5172602456578,54.215373984166746,156.845825373565,151.46384983118557,145.49160990804313,125.38838116195602,95.52829806146612,56.378063969421355,18.01460093723345,0.0,0.0,0.0,0.0,0.0,0.0,0.0,0.0,0.0,0.0,0.0,7.299032178766677,40.62477852873015,74.58917158574864,77.9807726588213,36.34852522799441,92.75115253230248,133.42468555906538,120.84155900572551,99.95193137152224,99.43572916716016,67.63402609539624,45.73655738735549,17.842285421285606,0.0,0.0,0.0,0.0,0.0,0.0,0.0,0.0,0.0,0.0,0.0,6.807765481032025,33.22712083867582,68.78924717855408,103.22034359842053,113.98503902666074,133.00710886599092,154.2409953603492,129.22212226298987,118.99856454573914,110.02810907945252,90.17051368223274,47.088285149607195,16.957633193622524,0.0,0.0,0.0,0.0,0.0,0.0,0.0,0.0,0.0,0.0,0.0,7.0533988298993515,40.47702634766904,80.63472934181054,113.17370463191716,136.15270441845556,148.45632999452366,107.8408557593112,19.53827204369228,67.51120942096256,115.55783680289304,95.30685587574482,49.373791809295454,17.42470872821115,0.0,0.0,0.0,0.0,0.0,0.0,0.0,0.0,0.0,0.0,0.0,7.888924387788969,32.04733642063124,66.42967834246491,87.19686147397525,119.88321677340224,75.86720934334016,62.66962724609128,88.76965925020755,98.45282359995014,83.82982373578935,55.71448175573885,25.16625310667973,10.198994382363962,0.0,0.0,0.0,0.0,0.0,0.0,0.0,0.0,0.0,0.0,0.0,3.883239942548007,27.574576440801646,30.278031965305075,31.924519746197575,91.84193696975268,78.34922268212229,80.09433597430242,120.35029230799088,113.2965213063508,108.01279910351836,63.70165948307476,26.61623420847837,17.375582058437683,0.0,0.0,0.0,0.0,0.0,0.0,0.0,0.0,0.0,0.0,0.0,7.323595513653411,39.616937454892685,58.27055727092188,58.172303931374955,137.72550219468786,112.70700126906924,111.9451657158398,152.9875209376444,140.42895771919126,121.13669119610702,64.19329835255012,40.77215853805053,5.652544397874174,0.0,0.0,0.0,0.0,0.0,0.0,0.0,0.0,0.0,0.0,0.0,7.1762155043330145,39.641500789779414,78.4229126867825,110.96188797688907,134.0391411029744,147.40866654443045,152.17655871464152,148.71126763690867,54.928082867622706,120.37485564287762,89.50693146855023,53.478101765824064,17.351018723550954,0.0,0.0,0.0,0.0,0.0,0.0,0.0,0.0,0.0,0.0,0.0,6.635449965084189,39.22392409670496,78.49697486318338,110.74081796290848,126.90237580315645,137.96034256307465,116.54074237010308,132.0569544119632,89.53819389476972,90.71574528237004,85.1469395261552,53.404411761163864,14.942323217688324,0.0,0.0,0.0,0.0,0.0,0.0,0.0,0.0,0.0,0.0,0.0,6.193309937123,30.91705084410083,78.30009601234882,111.01101464666256,134.4816533026763,147.80205207435884,152.52044540305576,149.05552649706365,137.4556776826745,87.5407481623895,89.21217144990943,52.20006400823255,17.080449868056185,0.0,0.0,0.0,0.0,0.0,0.0,0.0,0.0,0.0,0.0,0.0,3.71092442660017,20.791746466397065,66.99500721660047,63.03807726939227,96.73227364265672,120.25166679670323,51.266285110796,47.03915847983374,60.605190600383615,103.98217915164992,91.59593144914464,53.2075329103293,17.40014539332442,0.0,0.0,0.0,0.0,0.0,0.0,0.0,0.0,0.0,0.0,0.0,6.438943285990327,38.33889969730117,78.32465934723555,111.96972905072654,134.4816533026763,117.76965345792112,147.08227192782942,107.02952136456764,82.13420928512335,96.4129502891292,89.92488033336541,52.445697357099874,15.286582077843285,0.0,0.0,0.0,0.0,0.0,0.0,0.0,0.0,0.0,0.0,0.0,6.488069955763793,38.31433636241444,78.49660269144269,111.478090
...